Version 4
SHEET 1 880 680
WIRE 80 -32 -320 -32
WIRE -320 16 -320 -32
WIRE 320 16 192 16
WIRE 192 96 192 16
WIRE 80 128 80 -32
WIRE 112 128 80 128
WIRE 496 128 272 128
WIRE 496 144 496 128
WIRE 112 160 -320 160
WIRE 368 176 272 176
WIRE -320 192 -320 160
WIRE 112 192 80 192
WIRE 368 192 368 176
WIRE 192 240 192 208
WIRE 192 272 192 240
WIRE 80 304 80 192
WIRE 80 304 -320 304
WIRE -320 336 -320 304
FLAG 368 256 0
FLAG 496 208 0
FLAG 192 272 0
FLAG -320 96 0
FLAG 320 96 0
FLAG -320 272 0
FLAG -320 416 0
SYMBOL voltage 320 0 R0
WINDOW 123 0 0 Left 2
WINDOW 39 0 0 Left 2
SYMATTR InstName V1
SYMATTR Value 2.5V
SYMBOL cap 480 144 R0
SYMATTR InstName C1
SYMATTR Value 15F
SYMBOL cap 352 192 R0
SYMATTR InstName C2
SYMATTR Value 15F
SYMBOL voltage -320 0 R0
WINDOW 123 0 0 Left 2
WINDOW 39 0 0 Left 2
SYMATTR InstName V2
SYMATTR Value PULSE(0 2.5 0 1p 1p 5u 10u)
SYMBOL voltage -320 176 R0
WINDOW 123 0 0 Left 2
WINDOW 39 0 0 Left 2
SYMATTR InstName V3
SYMATTR Value PULSE(0 2.5 0 1p 1p 2.5u 5u)
SYMBOL voltage -320 320 R0
WINDOW 123 0 0 Left 2
WINDOW 39 0 0 Left 2
SYMATTR InstName V4
SYMATTR Value PULSE(0 2.5 0 1p 1p 1.25u 2.5u)
SYMBOL FULL_ADDER 304 176 R0
SYMATTR InstName X2
TEXT -352 440 Left 2 !.tran 20u
