Version 4
SHEET 1 2144 916
WIRE -176 -48 -208 -48
WIRE 64 -48 -176 -48
WIRE 816 -48 64 -48
WIRE 1456 -48 816 -48
WIRE 1712 -48 1456 -48
WIRE -208 -16 -208 -48
WIRE 816 32 816 -48
WIRE 64 80 64 -48
WIRE 752 80 576 80
WIRE 1232 96 944 96
WIRE 0 128 -64 128
WIRE 240 128 144 128
WIRE 752 128 752 112
WIRE 752 128 624 128
WIRE 1456 224 1456 -48
WIRE 1232 272 1232 96
WIRE 1392 272 1232 272
WIRE 64 288 64 176
WIRE 432 288 64 288
WIRE 816 288 816 160
WIRE 816 288 432 288
WIRE 1840 288 1584 288
WIRE 1392 304 1232 304
WIRE 432 320 432 288
WIRE -176 384 -176 -48
WIRE 64 384 -176 384
WIRE 832 384 64 384
WIRE 1712 432 1712 -48
WIRE 1840 432 1712 432
WIRE 832 448 832 384
WIRE 1456 448 1456 352
WIRE 1456 448 1296 448
WIRE 64 496 64 384
WIRE 768 496 688 496
WIRE 1232 512 1232 304
WIRE 1232 512 960 512
WIRE 768 528 592 528
WIRE 0 544 -64 544
WIRE 224 544 144 544
WIRE 1712 608 1712 432
WIRE 1712 608 1504 608
WIRE 64 656 64 592
WIRE 432 656 64 656
WIRE 832 656 832 576
WIRE 832 656 432 656
WIRE 1104 656 832 656
WIRE 1184 656 1104 656
WIRE 1296 656 1296 448
WIRE 1296 656 1184 656
WIRE 432 704 432 656
WIRE 1504 736 1504 608
WIRE 1840 752 1840 432
WIRE 1440 768 1344 768
WIRE 1840 768 1840 752
WIRE 1440 784 1440 768
WIRE 1776 800 1632 800
WIRE 2016 800 1920 800
WIRE 1440 816 1344 816
WIRE 1840 848 1840 832
WIRE 1184 864 1184 656
WIRE 1504 864 1184 864
WIRE 1104 912 1104 656
WIRE 1840 912 1840 848
WIRE 1840 912 1104 912
FLAG -64 128 A
IOPIN -64 128 In
FLAG -64 544 B
IOPIN -64 544 In
FLAG 224 544 B_bar
IOPIN 224 544 BiDir
FLAG 240 128 A_bar
IOPIN 240 128 BiDir
FLAG -208 -16 Vdd
IOPIN -208 -16 In
FLAG 576 80 A_bar
IOPIN 576 80 BiDir
FLAG 624 128 B
IOPIN 624 128 In
FLAG 688 496 A
IOPIN 688 496 In
FLAG 592 528 B_bar
IOPIN 592 528 BiDir
FLAG 432 320 GND
IOPIN 432 320 In
FLAG 432 704 GND
IOPIN 432 704 In
FLAG 1344 768 A
IOPIN 1344 768 In
FLAG 1344 816 B
IOPIN 1344 816 In
FLAG 2016 800 Carry
IOPIN 2016 800 Out
FLAG 1840 288 Sum
IOPIN 1840 288 Out
SYMBOL INVERTER_Gate 208 128 R0
SYMATTR InstName X1
SYMBOL INVERTER_Gate 208 544 R0
SYMATTR InstName X2
SYMBOL NAND_Gate 928 96 R0
SYMATTR InstName X3
SYMBOL NAND_Gate 944 512 R0
SYMATTR InstName X4
SYMBOL NAND_Gate 1568 288 R0
SYMATTR InstName X5
SYMBOL NAND_Gate 1616 800 R0
SYMATTR InstName X6
SYMBOL INVERTER_Gate 1984 800 R0
SYMATTR InstName X7
