Version 4
SHEET 1 880 680
WIRE 192 -64 96 -64
WIRE 288 -64 192 -64
WIRE 192 -48 192 -64
WIRE 192 80 192 48
WIRE 288 128 288 -64
WIRE 288 128 192 128
WIRE 192 192 192 176
WIRE 448 192 192 192
WIRE 192 224 192 192
WIRE 192 224 80 224
WIRE 288 224 192 224
WIRE 160 272 80 272
WIRE 368 272 288 272
WIRE 80 336 80 320
WIRE 160 336 160 272
WIRE 160 336 80 336
WIRE 208 336 160 336
WIRE 288 336 288 320
WIRE 288 336 208 336
WIRE 368 336 368 272
WIRE 368 336 288 336
WIRE 208 368 208 336
FLAG 96 -64 Vdd
IOPIN 96 -64 In
FLAG 32 304 A
IOPIN 32 304 In
FLAG 144 160 A
IOPIN 144 160 In
FLAG 240 304 B
IOPIN 240 304 In
FLAG 144 32 B
IOPIN 144 32 In
FLAG 448 192 OUT
IOPIN 448 192 Out
FLAG 208 368 GND
IOPIN 208 368 In
SYMBOL cmosn 32 224 R0
SYMATTR InstName M1
SYMBOL cmosp 144 -48 R0
SYMATTR InstName M2
SYMBOL cmosp 144 80 R0
SYMATTR InstName M3
SYMBOL cmosn 240 224 R0
SYMATTR InstName M4
TEXT 408 16 Left 2 !.include tsmc018.lib
